
     RDKit          3D

 14 15  0  0  0  0  0  0  0  0999 V2000
     1.838    -3.613     9.307 O   0  0  0  0  0  0  0  0  0  0  0  0
     2.231    -3.521    10.500 C   0  0  0  0  0  0  0  0  0  0  0  0
     2.493    -4.604    11.257 N   0  0  0  0  0  0  0  0  0  0  0  0
     2.912    -4.499    12.532 C   0  0  0  0  0  0  0  0  0  0  0  0
     3.178    -5.586    13.297 N   0  0  0  0  0  0  0  0  0  0  0  0
     3.581    -5.442    14.526 O   0  0  0  0  0  0  0  0  0  0  0  0
     3.751    -4.284    15.087 C   0  0  0  0  0  0  0  0  0  0  0  0
     4.138    -4.102    16.266 O   0  0  0  0  0  0  0  0  0  0  0  0
     3.495    -3.185    14.349 N   0  0  0  0  0  0  0  0  0  0  0  0
     3.074    -3.242    13.069 C   0  0  0  0  0  0  0  0  0  0  0  0
     2.813    -2.179    12.318 N   0  0  0  0  0  0  0  0  0  0  0  0
     2.391    -2.252    11.035 C   0  0  0  0  0  0  0  0  0  0  0  0
     2.362    -5.543    10.824 H   0  0  0  0  0  0  0  0  0  0  0  0
     2.181    -1.377    10.431 H   0  0  0  0  0  0  0  0  0  0  0  0
  1  2  2  0
  2  3  1  0
  3  4  1  0
  4  5  2  0
  5  6  1  0
  6  7  1  0
  7  8  2  0
  7  9  1  0
  9 10  2  0
 10 11  1  0
 11 12  2  0
 12  2  1  0
 10  4  1  0
  3 13  1  0
 12 14  1  0
M  END
>  <CID>  (1) 
0

$$$$
