
     RDKit          3D

 15 16  0  0  0  0  0  0  0  0999 V2000
     2.183    -5.443    10.640 O   0  0  0  0  0  0  0  0  0  0  0  0
     2.333    -4.412    11.374 C   0  0  0  0  0  0  0  0  0  0  0  0
     2.258    -3.177    10.845 N   0  0  0  0  0  0  0  0  0  0  0  0
     2.419    -2.085    11.642 C   0  0  0  0  0  0  0  0  0  0  0  0
     2.661    -2.210    12.995 C   0  0  0  0  0  0  0  0  0  0  0  0
     2.823    -1.145    13.802 N   0  0  0  0  0  0  0  0  0  0  0  0
     2.746     0.084    13.260 C   0  0  0  0  0  0  0  0  0  0  0  0
     2.511     0.223    11.941 N   0  0  0  0  0  0  0  0  0  0  0  0
     2.347    -0.805    11.125 C   0  0  0  0  0  0  0  0  0  0  0  0
     2.126    -0.711     9.888 O   0  0  0  0  0  0  0  0  0  0  0  0
     2.728    -3.473    13.486 N   0  0  0  0  0  0  0  0  0  0  0  0
     2.569    -4.519    12.695 N   0  0  0  0  0  0  0  0  0  0  0  0
     2.077    -3.030     9.830 H   0  0  0  0  0  0  0  0  0  0  0  0
     3.006    -1.258    14.825 H   0  0  0  0  0  0  0  0  0  0  0  0
     2.876     0.963    13.904 H   0  0  0  0  0  0  0  0  0  0  0  0
  1  2  2  0
  2  3  1  0
  3  4  1  0
  4  5  2  0
  5  6  1  0
  6  7  1  0
  7  8  2  0
  8  9  1  0
  9 10  2  0
  5 11  1  0
 11 12  2  0
 12  2  1  0
  9  4  1  0
  3 13  1  0
  6 14  1  0
  7 15  1  0
M  END
>  <CID>  (1) 
0

$$$$
