BRD4, Ligand 8
     RDKit          3D

 17 19  0  0  0  0  0  0  0  0999 V2000
    3.2320    4.7640   13.6200 C   0  0  0  0  0  0  0  0  0  0  0  0
    3.2490    4.6200   15.0170 C   0  0  0  0  0  0  0  0  0  0  0  0
    3.1460    3.4130   15.6180 C   0  0  0  0  0  0  0  0  0  0  0  0
    2.8600   -0.1910   14.5760 N   0  0  0  0  0  0  0  0  0  0  0  0
    3.0390    2.2280   14.8720 C   0  0  0  0  0  0  0  0  0  0  0  0
    2.9640    1.2430   12.6620 N   0  0  0  0  0  0  0  0  0  0  0  0
    2.9420    0.9190   15.4510 C   0  0  0  0  0  0  0  0  0  0  0  0
    2.8810    0.0150   13.2310 C   0  0  0  0  0  0  0  0  0  0  0  0
    2.9580    0.6740   16.6750 O   0  0  0  0  0  0  0  0  0  0  0  0
    2.7950   -1.1630   12.3520 C   0  0  0  0  0  0  0  0  0  0  0  0
    2.2000   -1.1600   11.0730 C   0  0  0  0  0  0  0  0  0  0  0  0
    2.0370   -2.3470   10.3720 C   0  0  0  0  0  0  0  0  0  0  0  0
    2.5090   -3.5740   10.9120 C   0  0  0  0  0  0  0  0  0  0  0  0
    3.1500   -3.5880   12.1430 C   0  0  0  0  0  0  0  0  0  0  0  0
    3.2880   -2.4170   12.8540 C   0  0  0  0  0  0  0  0  0  0  0  0
    3.0310    2.4050   13.4570 C   0  0  0  0  0  0  0  0  0  0  0  0
    3.1180    3.6350   12.8260 C   0  0  0  0  0  0  0  0  0  0  0  0
  1  2  2  0
  1 17  1  0
  2  3  1  0
  3  5  2  0
  4  7  1  0
  4  8  1  0
  5  7  1  0
  5 16  1  0
  6  8  2  0
  6 16  1  0
  7  9  2  0
  8 10  1  0
 10 11  2  0
 10 15  1  0
 11 12  1  0
 12 13  2  0
 13 14  1  0
 14 15  2  0
 16 17  2  0
M  END
$$$$
