BRD4, Ligand 10
     RDKit          3D

 19 22  0  0  1  0  0  0  0  0999 V2000
   -0.4560   -0.7180   14.5920 C   0  0  0  0  0  0  0  0  0  0  0  0
   -0.0210   -2.3470   16.2980 C   0  0  0  0  0  0  0  0  0  0  0  0
   -1.6270   -0.3260   15.2100 C   0  0  0  0  0  0  0  0  0  0  0  0
   -1.1970   -1.9620   16.9150 C   0  0  0  0  0  0  0  0  0  0  0  0
    2.3920   -2.4660   11.6170 C   0  0  0  0  0  0  0  0  0  0  0  0
    0.3470   -1.7090   15.1310 C   0  0  0  0  0  0  0  0  0  0  0  0
    2.1870   -1.0500   13.5970 C   0  0  0  0  0  0  0  0  0  0  0  0
    2.4960    0.2850   14.0180 C   0  0  0  0  0  0  0  0  0  0  0  0
   -1.9890   -0.9610   16.3800 C   0  0  0  0  0  0  0  0  0  0  0  0
    2.5060   -1.2410   12.2620 C   0  0  0  0  0  0  0  0  0  0  0  0
    2.7210   -3.6030   12.3080 C   0  0  0  0  0  0  0  0  0  0  0  0
    2.0480   -2.8820   10.3070 C   0  0  0  0  0  0  0  0  0  0  0  0
    3.0530    1.0370   12.9970 C   0  0  0  0  0  0  0  0  0  0  0  0
    1.5800   -2.0950   14.4180 C   0  0  0  0  0  0  0  0  0  0  0  0
    3.1440   -3.7250   13.7230 C   0  0  0  0  0  0  0  0  0  0  0  0
    2.1540   -4.2160   10.2220 N   0  0  0  0  0  0  0  0  0  0  0  0
    1.9630   -3.3410   14.4970 N   0  0  0  0  0  0  0  0  0  0  0  0
    2.5670   -4.6750   11.4770 O   0  0  0  0  0  0  0  0  0  0  0  0
    3.1830    0.1500   11.5300 S   0  0  0  0  0  0  0  0  0  0  0  0
  1  3  2  0
  1  6  1  0
  2  4  1  0
  2  6  2  0
  3  9  1  0
  4  9  2  0
  5 10  1  0
  5 11  2  0
  5 12  1  0
  6 14  1  0
  7  8  1  0
  7 10  2  0
  7 14  1  0
  8 13  2  0
 10 19  1  0
 11 15  1  0
 11 18  1  0
 12 16  2  0
 13 19  1  0
 14 17  2  0
 15 17  1  0
 16 18  1  0
M  END
$$$$
