BRD4, Ligand 2
     RDKit          3D

 15 17  0  0  0  0  0  0  0  0999 V2000
    5.4388   -1.3545   13.8398 C   0  0  0  0  0  0  0  0  0  0  0  0
    5.6552   -0.0033   13.8347 C   0  0  0  0  0  0  0  0  0  0  0  0
    5.5353    0.7190   14.9929 C   0  0  0  0  0  0  0  0  0  0  0  0
    6.5413   -5.4590   13.2836 C   0  0  0  0  0  0  0  0  0  0  0  0
    5.1483    0.1369   16.1463 C   0  0  0  0  0  0  0  0  0  0  0  0
    4.8849   -1.1729   16.1922 C   0  0  0  0  0  0  0  0  0  0  0  0
    5.0451   -1.9446   15.0389 C   0  0  0  0  0  0  0  0  0  0  0  0
    5.7190   -4.4188   11.5788 C   0  0  0  0  0  0  0  0  0  0  0  0
    5.2400   -4.0212   10.4007 N   0  0  0  0  0  0  0  0  0  0  0  0
    6.1727   -5.6487   11.9441 N   0  0  0  0  0  0  0  0  0  0  0  0
    5.3098   -2.1908   12.6608 C   0  0  0  0  0  0  0  0  0  0  0  0
    4.8078   -2.7192   10.3339 C   0  0  0  0  0  0  0  0  0  0  0  0
    6.3404   -4.1867   13.8114 N   0  0  0  0  0  0  0  0  0  0  0  0
    5.8032   -3.5202   12.7412 N   0  0  0  0  0  0  0  0  0  0  0  0
    4.8423   -1.8290   11.4162 C   0  0  0  0  0  0  0  0  0  0  0  0
  1  2  2  0
  1  7  1  0
  1 11  1  0
  2  3  1  0
  3  5  2  0
  4 10  1  0
  4 13  2  0
  5  6  1  0
  6  7  2  0
  8  9  1  0
  8 10  2  0
  8 14  1  0
  9 12  2  0
 11 14  1  0
 11 15  2  0
 12 15  1  0
 13 14  1  0
M  END
$$$$
