BRD4, Ligand 6
     RDKit          3D

 17 19  0  0  0  0  0  0  0  0999 V2000
   12.3988    3.8074    8.9929 C   0  0  0  0  0  0  0  0  0  0  0  0
   11.6076    3.7505    7.8635 C   0  0  0  0  0  0  0  0  0  0  0  0
   12.1427    4.1600    6.6459 C   0  0  0  0  0  0  0  0  0  0  0  0
   15.3633    5.5148    5.3284 N   0  0  0  0  0  0  0  0  0  0  0  0
   13.4471    4.6496    6.5500 C   0  0  0  0  0  0  0  0  0  0  0  0
   15.5895    5.1787    7.7068 N   0  0  0  0  0  0  0  0  0  0  0  0
   13.9938    5.0680    5.2526 C   0  0  0  0  0  0  0  0  0  0  0  0
   16.0859    5.5363    6.5157 C   0  0  0  0  0  0  0  0  0  0  0  0
   13.4355    5.0899    4.1461 O   0  0  0  0  0  0  0  0  0  0  0  0
   17.5022    6.0837    6.4666 C   0  0  0  0  0  0  0  0  0  0  0  0
   17.8960    6.7841    5.3320 C   0  0  0  0  0  0  0  0  0  0  0  0
   19.1378    7.4295    5.2881 C   0  0  0  0  0  0  0  0  0  0  0  0
   19.9464    7.3814    6.3892 C   0  0  0  0  0  0  0  0  0  0  0  0
   19.5974    6.6859    7.5701 C   0  0  0  0  0  0  0  0  0  0  0  0
   18.3557    6.0058    7.6058 C   0  0  0  0  0  0  0  0  0  0  0  0
   14.2458    4.7323    7.7050 C   0  0  0  0  0  0  0  0  0  0  0  0
   13.7280    4.3221    8.9551 C   0  0  0  0  0  0  0  0  0  0  0  0
  1  2  2  0
  1 17  1  0
  2  3  1  0
  3  5  2  0
  4  7  1  0
  4  8  1  0
  5  7  1  0
  5 16  1  0
  6  8  2  0
  6 16  1  0
  7  9  2  0
  8 10  1  0
 10 11  2  0
 10 15  1  0
 11 12  1  0
 12 13  2  0
 13 14  1  0
 14 15  2  0
 16 17  2  0
M  END
$$$$
