
     RDKit          3D

 15 16  0  0  0  0  0  0  0  0999 V2000
     2.993     0.607    16.747 O   0  0  0  0  0  0  0  0  0  0  0  0
     2.975     0.897    15.498 C   0  0  0  0  0  0  0  0  0  0  0  0
     2.862    -0.118    14.640 N   0  0  0  0  0  0  0  0  0  0  0  0
     2.830     0.029    13.308 C   0  0  0  0  0  0  0  0  0  0  0  0
     2.921     1.312    12.834 C   0  0  0  0  0  0  0  0  0  0  0  0
     3.041     2.403    13.711 C   0  0  0  0  0  0  0  0  0  0  0  0
     3.176     4.094    13.535 S   0  0  0  0  0  0  0  0  0  0  0  0
     3.268     4.538    15.180 C   0  0  0  0  0  0  0  0  0  0  0  0
     3.189     3.330    15.824 C   0  0  0  0  0  0  0  0  0  0  0  0
     3.072     2.231    15.067 C   0  0  0  0  0  0  0  0  0  0  0  0
     2.793    -1.108    15.051 H   0  0  0  0  0  0  0  0  0  0  0  0
     2.737    -0.830    12.685 H   0  0  0  0  0  0  0  0  0  0  0  0
     2.903     1.524    11.783 H   0  0  0  0  0  0  0  0  0  0  0  0
     3.367     5.537    15.645 H   0  0  0  0  0  0  0  0  0  0  0  0
     3.227     3.337    16.938 H   0  0  0  0  0  0  0  0  0  0  0  0
  1  2  2  0
  2  3  1  0
  3  4  1  0
  4  5  2  0
  5  6  1  0
  6  7  1  0
  7  8  1  0
  8  9  2  0
  9 10  1  0
 10  2  1  0
 10  6  2  0
  3 11  1  0
  4 12  1  0
  5 13  1  0
  8 14  1  0
  9 15  1  0
M  END
>  <CID>  (1) 
0

$$$$
