
     RDKit          3D

 15 16  0  0  0  0  0  0  0  0999 V2000
     2.301    -0.593    12.687 O   0  0  0  0  0  0  0  0  0  0  0  0
     2.227    -1.449    11.737 C   0  0  0  0  0  0  0  0  0  0  0  0
     1.973    -0.970    10.498 C   0  0  0  0  0  0  0  0  0  0  0  0
     1.850    -1.704     9.328 C   0  0  0  0  0  0  0  0  0  0  0  0
     2.053    -3.390     9.556 S   0  0  0  0  0  0  0  0  0  0  0  0
     2.367    -3.812    11.185 C   0  0  0  0  0  0  0  0  0  0  0  0
     2.591    -4.984    11.838 N   0  0  0  0  0  0  0  0  0  0  0  0
     2.783    -4.722    13.145 C   0  0  0  0  0  0  0  0  0  0  0  0
     2.680    -3.355    13.332 C   0  0  0  0  0  0  0  0  0  0  0  0
     2.416    -2.773    12.089 C   0  0  0  0  0  0  0  0  0  0  0  0
     1.843     0.119    10.358 H   0  0  0  0  0  0  0  0  0  0  0  0
     1.643    -1.230     8.367 H   0  0  0  0  0  0  0  0  0  0  0  0
     2.595    -5.891    11.332 H   0  0  0  0  0  0  0  0  0  0  0  0
     2.984    -5.454    13.918 H   0  0  0  0  0  0  0  0  0  0  0  0
     2.787    -2.830    14.282 H   0  0  0  0  0  0  0  0  0  0  0  0
  1  2  2  0
  2  3  1  0
  3  4  2  0
  4  5  1  0
  5  6  1  0
  6  7  1  0
  7  8  1  0
  8  9  2  0
  9 10  1  0
 10  2  1  0
 10  6  2  0
  3 11  1  0
  4 12  1  0
  7 13  1  0
  8 14  1  0
  9 15  1  0
M  END
>  <CID>  (1) 
0

$$$$
