
     RDKit          3D

  8  8  0  0  0  0  0  0  0  0999 V2000
     2.175    -4.676    10.653 O   0  0  0  0  0  0  0  0  0  0  0  0
     2.451    -4.151    11.804 C   0  0  0  0  0  0  0  0  0  0  0  0
     2.393    -2.790    11.693 C   0  0  0  0  0  0  0  0  0  0  0  0
     2.061    -2.517    10.390 C   0  0  0  0  0  0  0  0  0  0  0  0
     1.946    -3.724     9.819 N   0  0  0  0  0  0  0  0  0  0  0  0
     2.692    -4.690    12.723 H   0  0  0  0  0  0  0  0  0  0  0  0
     2.573    -2.056    12.481 H   0  0  0  0  0  0  0  0  0  0  0  0
     1.929    -1.542     9.949 H   0  0  0  0  0  0  0  0  0  0  0  0
  1  2  1  0
  2  3  2  0
  3  4  1  0
  4  5  2  0
  5  1  1  0
  2  6  1  0
  3  7  1  0
  4  8  1  0
M  END
>  <CID>  (1) 
0

$$$$
