
     RDKit          3D

 12 13  0  0  0  0  0  0  0  0999 V2000
    -1.407    -2.825    17.252 O   0  0  0  0  0  0  0  0  0  0  0  0
    -1.292    -1.837    16.444 C   0  0  0  0  0  0  0  0  0  0  0  0
    -2.276    -0.474    16.267 S   0  0  0  0  0  0  0  0  0  0  0  0
    -1.430     0.296    15.017 C   0  0  0  0  0  0  0  0  0  0  0  0
    -0.348    -0.594    14.772 C   0  0  0  0  0  0  0  0  0  0  0  0
     0.681    -0.469    13.838 C   0  0  0  0  0  0  0  0  0  0  0  0
     1.606    -1.469    13.802 C   0  0  0  0  0  0  0  0  0  0  0  0
     1.064    -2.526    15.010 S   0  0  0  0  0  0  0  0  0  0  0  0
    -0.328    -1.642    15.513 N   0  0  0  0  0  0  0  0  0  0  0  0
    -1.700     1.236    14.560 H   0  0  0  0  0  0  0  0  0  0  0  0
     0.825     0.372    13.113 H   0  0  0  0  0  0  0  0  0  0  0  0
     2.491    -1.553    13.137 H   0  0  0  0  0  0  0  0  0  0  0  0
  1  2  2  0
  2  3  1  0
  3  4  1  0
  4  5  2  0
  5  6  1  0
  6  7  2  0
  7  8  1  0
  8  9  1  0
  9  2  1  0
  9  5  1  0
  4 10  1  0
  6 11  1  0
  7 12  1  0
M  END
>  <CID>  (1) 
0

$$$$
