
     RDKit          3D

 12 13  0  0  0  0  0  0  0  0999 V2000
     5.063    -2.982    19.315 O   0  0  0  0  0  0  0  0  0  0  0  0
     3.959    -2.504    18.854 C   0  0  0  0  0  0  0  0  0  0  0  0
     3.183    -1.937    19.766 N   0  0  0  0  0  0  0  0  0  0  0  0
     2.013    -1.366    19.620 N   0  0  0  0  0  0  0  0  0  0  0  0
     1.480    -1.397    17.997 S   0  0  0  0  0  0  0  0  0  0  0  0
     2.553    -2.147    16.918 C   0  0  0  0  0  0  0  0  0  0  0  0
     2.660    -2.452    15.583 C   0  0  0  0  0  0  0  0  0  0  0  0
     3.867    -3.104    15.397 C   0  0  0  0  0  0  0  0  0  0  0  0
     4.432    -3.174    16.566 O   0  0  0  0  0  0  0  0  0  0  0  0
     3.701    -2.624    17.506 C   0  0  0  0  0  0  0  0  0  0  0  0
     1.884    -2.191    14.858 H   0  0  0  0  0  0  0  0  0  0  0  0
     4.195    -3.451    14.434 H   0  0  0  0  0  0  0  0  0  0  0  0
  1  2  2  0
  2  3  1  0
  3  4  2  0
  4  5  1  0
  5  6  1  0
  6  7  1  0
  7  8  2  0
  8  9  1  0
  9 10  1  0
 10  2  1  0
 10  6  2  0
  7 11  1  0
  8 12  1  0
M  END
>  <CID>  (1) 
0

$$$$
