3sw4_B_18K.pdb
     RDKit          3D

 23 25  0  0  0  0  0  0  0  0999 V2000
   14.4651   22.7298  -10.1481 S   0  0  0  0  0  0  0  0  0  0  0  0
   11.5395   24.1977   -7.7479 C   0  0  0  0  0  0  0  0  0  0  0  0
   11.9061   22.8197   -9.7697 N   0  0  0  0  0  0  0  0  0  0  0  0
   12.4533   23.5679   -8.7440 C   0  0  0  0  0  0  0  0  0  0  0  0
   12.5502   21.6509  -11.6952 N   0  0  0  0  0  0  0  0  0  0  0  0
   12.8229   22.3391  -10.5778 C   0  0  0  0  0  0  0  0  0  0  0  0
   16.9321   25.4422   -6.5546 N   0  0  0  0  0  0  0  0  0  0  0  0
   13.8554   23.6448   -8.7827 C   0  0  0  0  0  0  0  0  0  0  0  0
   18.3814   24.6878   -8.1454 N   0  0  0  0  0  0  0  0  0  0  0  0
   14.8645   24.3036   -7.9358 C   0  0  0  0  0  0  0  0  0  0  0  0
   21.0129   22.1788  -12.4885 N   0  0  0  0  0  0  0  0  0  0  0  0
   14.5705   24.9794   -6.7583 C   0  0  0  0  0  0  0  0  0  0  0  0
   16.1111   24.2020   -8.4207 N   0  0  0  0  0  0  0  0  0  0  0  0
   15.6652   25.5333   -6.1149 C   0  0  0  0  0  0  0  0  0  0  0  0
   17.1022   24.7691   -7.6994 C   0  0  0  0  0  0  0  0  0  0  0  0
   19.0141   24.0516   -9.2318 C   0  0  0  0  0  0  0  0  0  0  0  0
   20.3197   24.4128   -9.5579 C   0  0  0  0  0  0  0  0  0  0  0  0
   20.9559   23.8366  -10.6449 C   0  0  0  0  0  0  0  0  0  0  0  0
   20.2877   22.8763  -11.3993 C   0  0  0  0  0  0  0  0  0  0  0  0
   21.9882   21.1725  -11.9695 C   0  0  0  0  0  0  0  0  0  0  0  0
   20.1168   21.5832  -13.5226 C   0  0  0  0  0  0  0  0  0  0  0  0
   18.9735   22.5168  -11.0885 C   0  0  0  0  0  0  0  0  0  0  0  0
   18.3466   23.1081  -10.0054 C   0  0  0  0  0  0  0  0  0  0  0  0
  1  8  1  0
  1  6  1  0
  2  4  1  0
  3  4  1  0
  3  6  2  0
  4  8  2  0
  5  6  1  0
  7 14  2  0
  7 15  1  0
  8 10  1  0
  9 15  1  0
  9 16  1  0
 10 12  2  0
 10 13  1  0
 11 19  1  0
 11 20  1  0
 11 21  1  0
 12 14  1  0
 13 15  2  0
 16 17  2  0
 16 23  1  0
 17 18  1  0
 18 19  2  0
 19 22  1  0
 22 23  2  0
M  END
$$$$
