3sw7_B_19K.pdb
     RDKit          3D

 18 20  0  0  0  0  0  0  0  0999 V2000
   -0.4270   -7.9280   26.1250 S   0  0  0  0  0  0  0  0  0  0  0  0
    1.8310   -7.2860   25.0830 N   0  0  0  0  0  0  0  0  0  0  0  0
    0.9100   -8.2070   25.0500 C   0  0  0  0  0  0  0  0  0  0  0  0
   -2.1430   -4.2620   29.2940 N   0  0  0  0  0  0  0  0  0  0  0  0
    1.5330   -6.2740   25.9800 C   0  0  0  0  0  0  0  0  0  0  0  0
   -3.3630   -6.1990   29.5250 N   0  0  0  0  0  0  0  0  0  0  0  0
    0.3010   -6.4300   26.6440 C   0  0  0  0  0  0  0  0  0  0  0  0
   -0.5070   -5.5870   27.5460 C   0  0  0  0  0  0  0  0  0  0  0  0
   -1.5380   -6.2410   28.1030 N   0  0  0  0  0  0  0  0  0  0  0  0
   -0.2260   -4.2540   27.8230 C   0  0  0  0  0  0  0  0  0  0  0  0
   -1.1010   -3.6460   28.7080 C   0  0  0  0  0  0  0  0  0  0  0  0
   -2.3240   -5.5450   28.9510 C   0  0  0  0  0  0  0  0  0  0  0  0
   -3.9160   -7.4890   29.3600 C   0  0  0  0  0  0  0  0  0  0  0  0
   -3.5260   -8.2990   28.3020 C   0  0  0  0  0  0  0  0  0  0  0  0
   -4.0520   -9.5680   28.1580 C   0  0  0  0  0  0  0  0  0  0  0  0
   -4.9840  -10.0820   29.0420 C   0  0  0  0  0  0  0  0  0  0  0  0
   -5.4220   -9.2140   30.1470 C   0  0  0  0  0  0  0  0  0  0  0  0
   -4.8480   -7.9620   30.2790 C   0  0  0  0  0  0  0  0  0  0  0  0
  1  3  1  0
  1  7  1  0
  2  3  2  0
  2  5  1  0
  4 12  2  0
  4 11  1  0
  5  7  2  0
  6 13  1  0
  6 12  1  0
  7  8  1  0
  8  9  2  0
  8 10  1  0
  9 12  1  0
 10 11  2  0
 13 18  1  0
 13 14  2  0
 14 15  1  0
 15 16  2  0
 16 17  1  0
 17 18  2  0
M  END
$$$$
