4fkg_B_4CK.pdb
 OpenBabel04292111593D

 20 22  0  0  0  0  0  0  0  0999 V2000
   -0.8330   -3.7920   29.1930 N   0  0  0  0  0  0  0  0  0  0  0  0
   -1.8290   -4.3870   29.6610 N   0  0  0  0  0  0  0  0  0  0  0  0
   -2.7560   -6.5370   29.5890 N   0  0  0  0  0  0  0  0  0  0  0  0
   -7.4090  -11.0360   32.5220 O   0  0  0  0  0  0  0  0  0  0  0  0
   -2.3020   -8.1970   28.0990 O   0  0  0  0  0  0  0  0  0  0  0  0
   -7.8340  -11.8630   30.5200 O   0  0  0  0  0  0  0  0  0  0  0  0
   -5.8000  -10.2960   29.3250 C   0  0  0  0  0  0  0  0  0  0  0  0
   -5.5070   -9.2440   31.4900 C   0  0  0  0  0  0  0  0  0  0  0  0
   -4.8030   -9.4790   28.7790 C   0  0  0  0  0  0  0  0  0  0  0  0
   -4.4990   -8.4410   30.9530 C   0  0  0  0  0  0  0  0  0  0  0  0
   -0.6740   -5.8630   28.5020 C   0  0  0  0  0  0  0  0  0  0  0  0
    1.7120   -4.8050   26.5310 C   0  0  0  0  0  0  0  0  0  0  0  0
    2.4040   -5.1900   27.8420 C   0  0  0  0  0  0  0  0  0  0  0  0
   -7.2310  -11.0850   31.2850 C   0  0  0  0  0  0  0  0  0  0  0  0
   -3.0010   -7.7170   28.9930 C   0  0  0  0  0  0  0  0  0  0  0  0
   -6.1530  -10.1720   30.6740 C   0  0  0  0  0  0  0  0  0  0  0  0
   -4.1410   -8.5490   29.5960 C   0  0  0  0  0  0  0  0  0  0  0  0
   -1.7820   -5.6690   29.2600 C   0  0  0  0  0  0  0  0  0  0  0  0
   -0.0890   -4.6560   28.4780 C   0  0  0  0  0  0  0  0  0  0  0  0
    1.2370   -4.1890   27.8540 C   0  0  0  0  0  0  0  0  0  0  0  0
  1  2  1  0  0  0  0
  1 19  1  0  0  0  0
  2 18  2  0  0  0  0
  3 18  1  0  0  0  0
  3 15  1  0  0  0  0
  4 14  2  0  0  0  0
  5 15  2  0  0  0  0
  6 14  1  0  0  0  0
  7 16  2  0  0  0  0
  7  9  1  0  0  0  0
  8 10  2  0  0  0  0
  8 16  1  0  0  0  0
  9 17  2  0  0  0  0
 10 17  1  0  0  0  0
 11 18  1  0  0  0  0
 11 19  2  0  0  0  0
 12 20  1  0  0  0  0
 12 13  1  0  0  0  0
 13 20  1  0  0  0  0
 14 16  1  0  0  0  0
 15 17  1  0  0  0  0
 19 20  1  0  0  0  0
M  END
$$$$
