4fkg_B_4CK.pdb
     RDKit          3D

 20 22  0  0  0  0  0  0  0  0999 V2000
   29.5940    5.3108    5.0701 N   0  0  0  0  0  0  0  0  0  0  0  0
   30.3168    4.4124    4.5848 N   0  0  0  0  0  0  0  0  0  0  0  0
   30.8513    3.5738    2.4640 N   0  0  0  0  0  0  0  0  0  0  0  0
   35.3275   -0.4519   -1.3111 O   0  0  0  0  0  0  0  0  0  0  0  0
   29.7152    3.8914    0.5171 O   0  0  0  0  0  0  0  0  0  0  0  0
   33.6370   -1.1079   -2.5699 O   0  0  0  0  0  0  0  0  0  0  0  0
   31.8525    0.6801   -1.2897 C   0  0  0  0  0  0  0  0  0  0  0  0
   33.6693    1.2181    0.2235 C   0  0  0  0  0  0  0  0  0  0  0  0
   31.0054    1.5599   -0.6056 C   0  0  0  0  0  0  0  0  0  0  0  0
   32.8324    2.1106    0.8961 C   0  0  0  0  0  0  0  0  0  0  0  0
   29.3612    5.4609    2.8986 C   0  0  0  0  0  0  0  0  0  0  0  0
   26.8904    7.5140    3.5126 C   0  0  0  0  0  0  0  0  0  0  0  0
   28.1435    8.3915    3.4382 C   0  0  0  0  0  0  0  0  0  0  0  0
   34.1193   -0.4402   -1.6342 C   0  0  0  0  0  0  0  0  0  0  0  0
   30.5705    3.2999    1.1780 C   0  0  0  0  0  0  0  0  0  0  0  0
   33.1769    0.5071   -0.8702 C   0  0  0  0  0  0  0  0  0  0  0  0
   31.4961    2.2868    0.4906 C   0  0  0  0  0  0  0  0  0  0  0  0
   30.2057    4.4579    3.2461 C   0  0  0  0  0  0  0  0  0  0  0  0
   28.9898    5.9869    4.0755 C   0  0  0  0  0  0  0  0  0  0  0  0
   28.0983    7.1964    4.4045 C   0  0  0  0  0  0  0  0  0  0  0  0
  1  2  1  0
  1 19  1  0
  2 18  2  0
  3 18  1  0
  3 15  1  0
  4 14  2  0
  5 15  2  0
  6 14  1  0
  7 16  2  0
  7  9  1  0
  8 10  2  0
  8 16  1  0
  9 17  2  0
 10 17  1  0
 11 18  1  0
 11 19  2  0
 12 20  1  0
 12 13  1  0
 13 20  1  0
 14 16  1  0
 15 17  1  0
 19 20  1  0
M  END
$$$$
