4fki_B_09K.pdb
     RDKit          3D

 18 20  0  0  0  0  0  0  0  0999 V2000
   13.1466  -16.0567   23.3906 N   0  0  0  0  0  0  0  0  0  0  0  0
   15.1299  -21.3061   23.9360 C   0  0  0  0  0  0  0  0  0  0  0  0
   13.2997  -13.9539   24.5138 N   0  0  0  0  0  0  0  0  0  0  0  0
   13.8797  -16.6472   21.3015 O   0  0  0  0  0  0  0  0  0  0  0  0
   15.0409  -21.0905   22.5449 C   0  0  0  0  0  0  0  0  0  0  0  0
   13.7995  -12.7534   24.2481 N   0  0  0  0  0  0  0  0  0  0  0  0
   14.1878  -20.0780   22.0690 C   0  0  0  0  0  0  0  0  0  0  0  0
   13.4512  -19.2857   22.9975 C   0  0  0  0  0  0  0  0  0  0  0  0
   13.5876  -19.5069   24.3610 C   0  0  0  0  0  0  0  0  0  0  0  0
   14.4247  -20.5168   24.8776 C   0  0  0  0  0  0  0  0  0  0  0  0
   12.5264  -18.2628   22.4993 C   0  0  0  0  0  0  0  0  0  0  0  0
   13.2613  -16.9185   22.3125 C   0  0  0  0  0  0  0  0  0  0  0  0
   13.6492  -14.7735   23.4649 C   0  0  0  0  0  0  0  0  0  0  0  0
   14.4902  -12.7239   23.0356 C   0  0  0  0  0  0  0  0  0  0  0  0
   14.4277  -14.0273   22.4923 C   0  0  0  0  0  0  0  0  0  0  0  0
   15.1060  -11.4766   22.5715 C   0  0  0  0  0  0  0  0  0  0  0  0
   16.3300  -11.5412   21.6978 C   0  0  0  0  0  0  0  0  0  0  0  0
   15.0194  -11.0350   21.1336 C   0  0  0  0  0  0  0  0  0  0  0  0
  1 12  1  0
  1 13  1  0
  2  5  2  0
  2 10  1  0
  3 13  2  0
  3  6  1  0
  4 12  2  0
  5  7  1  0
  6 14  2  0
  7  8  2  0
  8 11  1  0
  8  9  1  0
  9 10  2  0
 11 12  1  0
 13 15  1  0
 14 16  1  0
 14 15  1  0
 16 18  1  0
 16 17  1  0
 17 18  1  0
M  END
$$$$
