4fki_B_09K.pdb
     RDKit          3D

 18 20  0  0  0  0  0  0  0  0999 V2000
   -3.1020   -6.4430   29.3250 N   0  0  0  0  0  0  0  0  0  0  0  0
   -4.7630  -10.8830   32.3770 C   0  0  0  0  0  0  0  0  0  0  0  0
   -1.8830   -4.4110   29.6280 N   0  0  0  0  0  0  0  0  0  0  0  0
   -2.5780   -8.2790   28.0580 O   0  0  0  0  0  0  0  0  0  0  0  0
   -4.5040  -11.3990   31.0900 C   0  0  0  0  0  0  0  0  0  0  0  0
   -0.7320   -3.9050   29.2030 N   0  0  0  0  0  0  0  0  0  0  0  0
   -4.5010  -10.5170   29.9940 C   0  0  0  0  0  0  0  0  0  0  0  0
   -4.7400   -9.1280   30.2090 C   0  0  0  0  0  0  0  0  0  0  0  0
   -4.9610   -8.6520   31.4940 C   0  0  0  0  0  0  0  0  0  0  0  0
   -4.9810   -9.5040   32.6170 C   0  0  0  0  0  0  0  0  0  0  0  0
   -4.7840   -8.2170   29.0610 C   0  0  0  0  0  0  0  0  0  0  0  0
   -3.3730   -7.6740   28.7510 C   0  0  0  0  0  0  0  0  0  0  0  0
   -1.9480   -5.7040   29.1610 C   0  0  0  0  0  0  0  0  0  0  0  0
    0.0040   -4.8220   28.4510 C   0  0  0  0  0  0  0  0  0  0  0  0
   -0.7480   -6.0180   28.4060 C   0  0  0  0  0  0  0  0  0  0  0  0
    1.3030   -4.4370   27.8900 C   0  0  0  0  0  0  0  0  0  0  0  0
    2.3540   -5.4930   27.6760 C   0  0  0  0  0  0  0  0  0  0  0  0
    1.7060   -4.8140   26.4880 C   0  0  0  0  0  0  0  0  0  0  0  0
  1 12  1  0
  1 13  1  0
  2  5  2  0
  2 10  1  0
  3 13  2  0
  3  6  1  0
  4 12  2  0
  5  7  1  0
  6 14  2  0
  7  8  2  0
  8 11  1  0
  8  9  1  0
  9 10  2  0
 11 12  1  0
 13 15  1  0
 14 16  1  0
 14 15  1  0
 16 18  1  0
 16 17  1  0
 17 18  1  0
M  END
$$$$
