4fkj_B_11K.pdb
     RDKit          3D

 26 29  0  0  0  0  0  0  0  0999 V2000
   29.3595    2.3969   13.5357 N   0  0  0  0  0  0  0  0  0  0  0  0
   30.1434    1.5779   12.9921 N   0  0  0  0  0  0  0  0  0  0  0  0
   31.0789    1.1378   10.8991 N   0  0  0  0  0  0  0  0  0  0  0  0
   39.4756    2.4335    6.0071 N   0  0  0  0  0  0  0  0  0  0  0  0
   30.6261    2.1514    8.8902 O   0  0  0  0  0  0  0  0  0  0  0  0
   34.3858    0.3124    9.3181 C   0  0  0  0  0  0  0  0  0  0  0  0
   33.5224    1.1940    7.2439 C   0  0  0  0  0  0  0  0  0  0  0  0
   35.6757    0.7134    8.9838 C   0  0  0  0  0  0  0  0  0  0  0  0
   34.8170    1.5798    6.8963 C   0  0  0  0  0  0  0  0  0  0  0  0
   29.6201    3.0419   11.4523 C   0  0  0  0  0  0  0  0  0  0  0  0
   41.7522    2.1136    5.4650 C   0  0  0  0  0  0  0  0  0  0  0  0
   41.0015    0.8099    5.1588 C   0  0  0  0  0  0  0  0  0  0  0  0
   37.0845    2.9081    6.5549 C   0  0  0  0  0  0  0  0  0  0  0  0
   26.9410    4.9158   12.1074 C   0  0  0  0  0  0  0  0  0  0  0  0
   28.1408    5.8274   12.3845 C   0  0  0  0  0  0  0  0  0  0  0  0
   40.6578    3.1779    5.5519 C   0  0  0  0  0  0  0  0  0  0  0  0
   39.5169    1.1887    5.2229 C   0  0  0  0  0  0  0  0  0  0  0  0
   38.2675    3.1844    5.6067 C   0  0  0  0  0  0  0  0  0  0  0  0
   31.9033    0.1330    8.8356 C   0  0  0  0  0  0  0  0  0  0  0  0
   37.1579    1.7165    7.4079 O   0  0  0  0  0  0  0  0  0  0  0  0
   31.1492    1.2565    9.5552 C   0  0  0  0  0  0  0  0  0  0  0  0
   33.3106    0.5733    8.4707 C   0  0  0  0  0  0  0  0  0  0  0  0
   35.8921    1.3393    7.7568 C   0  0  0  0  0  0  0  0  0  0  0  0
   30.3769    1.9499   11.7304 C   0  0  0  0  0  0  0  0  0  0  0  0
   29.0342    3.3348   12.6313 C   0  0  0  0  0  0  0  0  0  0  0  0
   28.0723    4.4629   13.0603 C   0  0  0  0  0  0  0  0  0  0  0  0
  1  2  1  0
  1 25  2  0
  2 24  2  0
  3 24  1  0
  3 21  1  0
  4 16  1  0
  4 17  1  0
  4 18  1  0
  5 21  2  0
  6  8  2  0
  6 22  1  0
  7  9  1  0
  7 22  2  0
  8 23  1  0
  9 23  2  0
 10 24  1  0
 10 25  1  0
 11 12  1  0
 11 16  1  0
 12 17  1  0
 13 18  1  0
 13 20  1  0
 14 26  1  0
 14 15  1  0
 15 26  1  0
 19 22  1  0
 19 21  1  0
 20 23  1  0
 25 26  1  0
M  END
$$$$
