4fkp_B_LS5.pdb
     RDKit          3D

 18 20  0  0  1  0  0  0  0  0999 V2000
   -0.0500   -3.6930   28.6160 N   0  0  0  0  0  0  0  0  0  0  0  0
   -0.9500   -4.6140   28.9780 C   0  0  0  0  0  0  0  0  0  0  0  0
   -0.7040   -5.8220   28.3220 C   0  0  2  0  0  0  0  0  0  0  0  0
    1.1060   -6.3990   26.5660 C   0  0  0  0  0  0  0  0  0  0  0  0
    2.1800   -5.8440   25.8560 C   0  0  0  0  0  0  0  0  0  0  0  0
    2.5980   -4.5170   26.0850 C   0  0  0  0  0  0  0  0  0  0  0  0
    1.8580   -3.7120   26.9760 C   0  0  0  0  0  0  0  0  0  0  0  0
    0.7840   -4.2570   27.6840 C   0  0  0  0  0  0  0  0  0  0  0  0
    0.3780   -5.5830   27.4460 C   0  0  0  0  0  0  0  0  0  0  0  0
   -1.8480   -4.4740   29.8200 O   0  0  0  0  0  0  0  0  0  0  0  0
   -1.5700   -6.9240   28.3450 C   0  0  0  0  0  0  0  0  0  0  0  0
   -2.6610   -6.9630   29.1300 N   0  0  0  0  0  0  0  0  0  0  0  0
   -3.5780   -7.9490   29.1160 C   0  0  0  0  0  0  0  0  0  0  0  0
   -3.7610   -8.7530   27.9710 C   0  0  0  0  0  0  0  0  0  0  0  0
   -4.7410   -9.7630   27.9900 C   0  0  0  0  0  0  0  0  0  0  0  0
   -5.5700   -9.9300   29.1060 C   0  0  0  0  0  0  0  0  0  0  0  0
   -5.4420   -9.1010   30.2350 C   0  0  0  0  0  0  0  0  0  0  0  0
   -4.4480   -8.1120   30.2040 C   0  0  0  0  0  0  0  0  0  0  0  0
  1  2  1  0
  1  8  1  0
  2  3  1  0
  2 10  2  0
  3  9  1  0
  3 11  1  6
  4  5  1  0
  4  9  2  0
  5  6  2  0
  6  7  1  0
  7  8  2  0
  8  9  1  0
 11 12  2  0
 12 13  1  0
 13 14  2  0
 13 18  1  0
 14 15  1  0
 15 16  2  0
 16 17  1  0
 17 18  2  0
M  END
$$$$
