4fkq_B_42K.pdb
 OpenBabel04292111593D

 25 28  0  0  1  0  0  0  0  0999 V2000
   -0.1280   -3.7520   28.6780 N   0  0  0  0  0  0  0  0  0  0  0  0
    2.4270   -6.6750   24.8630 N   0  0  0  0  0  0  0  0  0  0  0  0
    1.6920   -7.6770   24.9840 N   0  0  0  0  0  0  0  0  0  0  0  0
    0.7860   -7.5210   25.8390 N   0  0  0  0  0  0  0  0  0  0  0  0
   -1.6720   -6.8970   28.2810 N   0  0  0  0  0  0  0  0  0  0  0  0
   -2.7080   -6.9390   28.9830 N   0  0  0  0  0  0  0  0  0  0  0  0
   -6.3310  -12.4170   27.7120 N   0  0  0  0  0  0  0  0  0  0  0  0
   -1.9440   -4.4910   29.8570 O   0  0  0  0  0  0  0  0  0  0  0  0
   -7.0310  -11.7390   30.1120 O   0  0  0  0  0  0  0  0  0  0  0  0
   -7.9390  -10.5700   28.2000 O   0  0  0  0  0  0  0  0  0  0  0  0
   -3.5630   -8.8900   27.8720 C   0  0  0  0  0  0  0  0  0  0  0  0
   -4.5960   -8.0580   29.9040 C   0  0  0  0  0  0  0  0  0  0  0  0
   -4.5140   -9.9170   27.8120 C   0  0  0  0  0  0  0  0  0  0  0  0
   -5.5420   -9.0820   29.8520 C   0  0  0  0  0  0  0  0  0  0  0  0
    2.4710   -4.4660   26.0590 C   0  0  0  0  0  0  0  0  0  0  0  0
    1.7840   -3.7320   27.0540 C   0  0  0  0  0  0  0  0  0  0  0  0
   -3.5820   -7.9740   28.9400 C   0  0  0  0  0  0  0  0  0  0  0  0
   -5.4980  -10.0020   28.8010 C   0  0  0  0  0  0  0  0  0  0  0  0
   -1.0160   -4.6790   29.0490 C   0  0  0  0  0  0  0  0  0  0  0  0
   -0.8250   -5.8350   28.2940 C   0  0  0  0  0  0  0  0  0  0  0  0
    2.0430   -5.7600   25.7700 C   0  0  1  0  0  0  0  0  0  0  0  0
    0.6820   -4.2850   27.7380 C   0  0  0  0  0  0  0  0  0  0  0  0
    0.9100   -6.2960   26.3940 C   0  0  0  0  0  0  0  0  0  0  0  0
    0.2550   -5.5880   27.4320 C   0  0  0  0  0  0  0  0  0  0  0  0
   -6.7300  -11.2330   28.7420 S   0  0  0  0  0  0  0  0  0  0  0  0
  1 19  1  0  0  0  0
  1 22  1  0  0  0  0
  2  3  2  0  0  0  0
  2 21  1  0  0  0  0
  3  4  1  0  0  0  0
  4 23  2  0  0  0  0
  5  6  1  0  0  0  0
  5 20  2  0  0  0  0
  6 17  1  0  0  0  0
  7 25  1  0  0  0  0
  8 19  2  0  0  0  0
  9 25  2  0  0  0  0
 10 25  2  0  0  0  0
 11 13  2  0  0  0  0
 11 17  1  0  0  0  0
 12 14  1  0  0  0  0
 12 17  2  0  0  0  0
 13 18  1  0  0  0  0
 14 18  2  0  0  0  0
 15 16  2  0  0  0  0
 16 22  1  0  0  0  0
 18 25  1  0  0  0  0
 19 20  1  0  0  0  0
 20 24  1  0  0  0  0
 21 15  1  6  0  0  0
 21 23  1  0  0  0  0
 22 24  2  0  0  0  0
 23 24  1  0  0  0  0
M  END
$$$$
