4fkr_B_45K.pdb
     RDKit          3D

 26 30  0  0  1  0  0  0  0  0999 V2000
    9.6535   -5.8555   26.0599 N   0  0  0  0  0  0  0  0  0  0  0  0
    5.4660   -6.9476   31.3052 N   0  0  0  0  0  0  0  0  0  0  0  0
    7.3320   -3.3301   30.3203 N   0  0  0  0  0  0  0  0  0  0  0  0
    5.9741   -4.3237   31.8613 O   0  0  0  0  0  0  0  0  0  0  0  0
    1.0551  -11.4921   30.5959 O   0  0  0  0  0  0  0  0  0  0  0  0
    2.2239  -13.7352   30.6334 O   0  0  0  0  0  0  0  0  0  0  0  0
    6.3597   -6.7744   30.3238 C   0  0  0  0  0  0  0  0  0  0  0  0
    4.4231   -8.3209   32.9247 C   0  0  0  0  0  0  0  0  0  0  0  0
    3.7951   -9.5186   33.2864 C   0  0  0  0  0  0  0  0  0  0  0  0
    9.4060   -3.7192   27.2496 C   0  0  0  0  0  0  0  0  0  0  0  0
    8.8354   -3.0741   28.3477 C   0  0  0  0  0  0  0  0  0  0  0  0
    9.2780   -7.1479   26.0489 C   0  0  0  0  0  0  0  0  0  0  0  0
    4.6314   -9.1008   30.6636 C   0  0  0  0  0  0  0  0  0  0  0  0
    2.8775  -11.8953   32.5659 C   0  0  0  0  0  0  0  0  0  0  0  0
    3.7385  -11.5180   30.0628 C   0  0  0  0  0  0  0  0  0  0  0  0
    8.2258   -7.3799   27.3604 S   0  0  0  0  0  0  0  0  0  0  0  0
    4.8993   -8.1243   31.6226 C   0  0  0  0  0  0  0  0  0  0  0  0
    3.5715  -10.5265   32.3409 C   0  0  0  0  0  0  0  0  0  0  0  0
    4.0392  -10.3268   31.0110 C   0  0  0  0  0  0  0  0  0  0  0  0
    6.7301   -4.3839   30.8840 C   0  0  0  0  0  0  0  0  0  0  0  0
    6.8891   -5.5021   30.0674 C   0  0  1  0  0  0  0  0  0  0  0  0
    9.1751   -5.0807   27.0438 C   0  0  0  0  0  0  0  0  0  0  0  0
    8.0143   -3.7624   29.2468 C   0  0  0  0  0  0  0  0  0  0  0  0
    8.3152   -5.7716   27.9348 C   0  0  0  0  0  0  0  0  0  0  0  0
    7.7350   -5.1210   29.0279 C   0  0  0  0  0  0  0  0  0  0  0  0
    2.3117  -12.2536   30.8711 S   0  0  0  0  0  0  0  0  0  0  0  0
  1 22  1  0
  1 12  2  0
  2  7  2  0
  2 17  1  0
  3 23  1  0
  3 20  1  0
  4 20  2  0
  5 26  2  0
  6 26  2  0
  8 17  2  0
  8  9  1  0
  9 18  2  0
 10 11  1  0
 10 22  2  0
 11 23  2  0
 12 16  1  0
 13 17  1  0
 13 19  2  0
 14 18  1  0
 14 26  1  0
 15 19  1  0
 15 26  1  0
 16 24  1  0
 18 19  1  0
 20 21  1  0
 21  7  1  1
 21 25  1  0
 22 24  1  0
 23 25  1  0
 24 25  2  0
M  END
$$$$
