4fkt_B_48K.pdb
     RDKit          3D

 18 20  0  0  1  0  0  0  0  0999 V2000
   -2.6440   -7.1300   29.1570 N   0  0  0  0  0  0  0  0  0  0  0  0
   -1.8700   -4.5710   29.9630 O   0  0  0  0  0  0  0  0  0  0  0  0
   -0.0620   -3.8180   28.6740 N   0  0  0  0  0  0  0  0  0  0  0  0
   -5.5850  -10.0860   29.0890 C   0  0  0  0  0  0  0  0  0  0  0  0
   -5.4530   -9.2830   30.2090 C   0  0  0  0  0  0  0  0  0  0  0  0
   -4.4960   -8.2850   30.2170 C   0  0  0  0  0  0  0  0  0  0  0  0
   -3.6390   -8.1330   29.1370 C   0  0  0  0  0  0  0  0  0  0  0  0
   -1.6320   -7.0250   28.3110 C   0  0  0  0  0  0  0  0  0  0  0  0
   -0.7780   -5.9490   28.2700 C   0  0  2  0  0  0  0  0  0  0  0  0
   -0.9960   -4.7040   29.0920 C   0  0  0  0  0  0  0  0  0  0  0  0
    0.7720   -4.3760   27.6820 C   0  0  0  0  0  0  0  0  0  0  0  0
    1.8140   -3.7930   26.9820 C   0  0  0  0  0  0  0  0  0  0  0  0
    2.5280   -4.5740   26.0760 C   0  0  0  0  0  0  0  0  0  0  0  0
    2.1800   -5.9100   25.8640 C   0  0  0  0  0  0  0  0  0  0  0  0
    1.0850   -6.4700   26.5180 C   0  0  0  0  0  0  0  0  0  0  0  0
    0.3690   -5.7050   27.4370 C   0  0  0  0  0  0  0  0  0  0  0  0
   -3.7920   -8.9440   28.0180 C   0  0  0  0  0  0  0  0  0  0  0  0
   -4.7660   -9.9190   27.9920 C   0  0  0  0  0  0  0  0  0  0  0  0
  1  8  1  0
  1  7  1  0
  2 10  2  0
  3 11  1  0
  3 10  1  0
  4 18  2  0
  4  5  1  0
  5  6  2  0
  6  7  1  0
  7 17  2  0
  9  8  1  6
  9 16  1  0
  9 10  1  0
 11 16  2  0
 11 12  1  0
 12 13  2  0
 13 14  1  0
 14 15  2  0
 15 16  1  0
 17 18  1  0
M  END
$$$$
