4fku_D_60K.pdb
     RDKit          3D

 25 27  0  0  0  0  0  0  0  0999 V2000
    5.3978  -24.4256   18.7008 S   0  0  0  0  0  0  0  0  0  0  0  0
    6.6927  -23.3237   19.1533 C   0  0  0  0  0  0  0  0  0  0  0  0
    5.5428  -24.7757   17.1367 N   0  0  0  0  0  0  0  0  0  0  0  0
    5.5670  -25.6494   19.4269 O   0  0  0  0  0  0  0  0  0  0  0  0
    6.9637  -23.1462   20.4948 C   0  0  0  0  0  0  0  0  0  0  0  0
    9.4126  -20.4483   20.3859 N   0  0  0  0  0  0  0  0  0  0  0  0
    4.1719  -23.7382   18.8838 O   0  0  0  0  0  0  0  0  0  0  0  0
    7.8580  -22.1780   20.8855 C   0  0  0  0  0  0  0  0  0  0  0  0
   10.1975  -19.7471   19.4908 N   0  0  0  0  0  0  0  0  0  0  0  0
   10.3752  -18.7945   22.3415 O   0  0  0  0  0  0  0  0  0  0  0  0
    8.4811  -21.3740   19.9453 C   0  0  0  0  0  0  0  0  0  0  0  0
   11.7406  -17.1811   21.3653 N   0  0  0  0  0  0  0  0  0  0  0  0
   14.2619  -15.8791   15.6354 O   0  0  0  0  0  0  0  0  0  0  0  0
   10.9039  -18.7764   19.9595 C   0  0  0  0  0  0  0  0  0  0  0  0
   12.9681  -17.6467   15.2262 O   0  0  0  0  0  0  0  0  0  0  0  0
   10.9513  -18.2876   21.3735 C   0  0  0  0  0  0  0  0  0  0  0  0
   12.2477  -16.9194   20.0903 C   0  0  0  0  0  0  0  0  0  0  0  0
   13.0770  -15.8871   19.6698 C   0  0  0  0  0  0  0  0  0  0  0  0
   13.4701  -15.8613   18.3420 C   0  0  0  0  0  0  0  0  0  0  0  0
   13.0391  -16.8276   17.4342 C   0  0  0  0  0  0  0  0  0  0  0  0
   13.4640  -16.7495   16.0004 C   0  0  0  0  0  0  0  0  0  0  0  0
   12.1806  -17.8431   17.8597 C   0  0  0  0  0  0  0  0  0  0  0  0
   11.7747  -17.8965   19.1948 C   0  0  0  0  0  0  0  0  0  0  0  0
    8.2217  -21.5757   18.5961 C   0  0  0  0  0  0  0  0  0  0  0  0
    7.3441  -22.5634   18.1961 C   0  0  0  0  0  0  0  0  0  0  0  0
  1  3  1  0
  1  4  2  0
  1  7  2  0
  1  2  1  0
  2  5  2  0
  2 25  1  0
  5  8  1  0
  6 11  1  0
  6  9  1  0
  8 11  2  0
  9 14  2  0
 10 16  2  0
 11 24  1  0
 12 16  1  0
 12 17  1  0
 13 21  2  0
 14 23  1  0
 14 16  1  0
 15 21  1  0
 17 23  2  0
 17 18  1  0
 18 19  2  0
 19 20  1  0
 20 21  1  0
 20 22  2  0
 22 23  1  0
 24 25  2  0
M  END
$$$$
