4fkv_B_61K.pdb
     RDKit          3D

 28 31  0  0  0  0  0  0  0  0999 V2000
   12.0108   22.0131  -14.1863 N   0  0  0  0  0  0  0  0  0  0  0  0
    9.9975   21.2626  -14.0717 N   0  0  0  0  0  0  0  0  0  0  0  0
   10.0008   23.2223  -10.4427 N   0  0  0  0  0  0  0  0  0  0  0  0
   14.6429   26.1364   -7.1961 N   0  0  0  0  0  0  0  0  0  0  0  0
   15.5105   24.5029  -10.1917 N   0  0  0  0  0  0  0  0  0  0  0  0
   16.7523   24.5008  -10.3393 N   0  0  0  0  0  0  0  0  0  0  0  0
    8.7742   24.5970   -9.1196 O   0  0  0  0  0  0  0  0  0  0  0  0
   16.7452   26.0543   -8.0683 O   0  0  0  0  0  0  0  0  0  0  0  0
   16.7247   22.7111  -11.9085 C   0  0  0  0  0  0  0  0  0  0  0  0
   18.7124   24.0537  -11.6161 C   0  0  0  0  0  0  0  0  0  0  0  0
   17.3881   21.9184  -12.8457 C   0  0  0  0  0  0  0  0  0  0  0  0
   19.3832   23.2804  -12.5772 C   0  0  0  0  0  0  0  0  0  0  0  0
   11.0361   25.2837   -7.6011 C   0  0  0  0  0  0  0  0  0  0  0  0
   12.1763   25.8303   -7.0020 C   0  0  0  0  0  0  0  0  0  0  0  0
   11.2069   21.0258  -14.5742 C   0  0  0  0  0  0  0  0  0  0  0  0
   11.2956   22.8668  -13.4530 C   0  0  0  0  0  0  0  0  0  0  0  0
   12.4110   24.4873   -9.4412 C   0  0  0  0  0  0  0  0  0  0  0  0
    8.8387   22.6524  -11.1620 C   0  0  0  0  0  0  0  0  0  0  0  0
    8.8885   23.0621  -12.6385 C   0  0  0  0  0  0  0  0  0  0  0  0
    9.8566   24.1109   -9.4650 C   0  0  0  0  0  0  0  0  0  0  0  0
   17.3769   23.7922  -11.2978 C   0  0  0  0  0  0  0  0  0  0  0  0
   11.1504   24.6416   -8.8347 C   0  0  0  0  0  0  0  0  0  0  0  0
   10.0529   22.4002  -13.3752 C   0  0  0  0  0  0  0  0  0  0  0  0
   18.7115   22.2136  -13.1784 C   0  0  0  0  0  0  0  0  0  0  0  0
   15.5351   25.8107   -8.1328 C   0  0  0  0  0  0  0  0  0  0  0  0
   14.8962   25.1484   -9.1843 C   0  0  0  0  0  0  0  0  0  0  0  0
   13.4330   25.6872   -7.5928 C   0  0  0  0  0  0  0  0  0  0  0  0
   13.5566   25.0069   -8.8088 C   0  0  0  0  0  0  0  0  0  0  0  0
  1 16  2  0
  1 15  1  0
  2 23  2  0
  2 15  1  0
  3 20  1  0
  3 18  1  0
  4 27  1  0
  4 25  1  0
  5 26  2  0
  5  6  1  0
  6 21  1  0
  7 20  2  0
  8 25  2  0
  9 21  2  0
  9 11  1  0
 10 21  1  0
 10 12  2  0
 11 24  2  0
 12 24  1  0
 13 14  1  0
 13 22  2  0
 14 27  2  0
 16 23  1  0
 17 28  2  0
 17 22  1  0
 18 19  1  0
 19 23  1  0
 20 22  1  0
 25 26  1  0
 26 28  1  0
 27 28  1  0
M  END
$$$$
