
     RDKit          3D

 15 16  0  0  0  0  0  0  0  0999 V2000
     2.379    -0.768    11.720 O   0  0  0  0  0  0  0  0  0  0  0  0
     2.389    -1.755    10.902 C   0  0  0  0  0  0  0  0  0  0  0  0
     2.056    -1.491     9.618 C   0  0  0  0  0  0  0  0  0  0  0  0
     1.999    -2.394     8.568 C   0  0  0  0  0  0  0  0  0  0  0  0
     2.407    -3.995     9.022 S   0  0  0  0  0  0  0  0  0  0  0  0
     2.799    -4.140    10.682 C   0  0  0  0  0  0  0  0  0  0  0  0
     3.174    -5.173    11.484 N   0  0  0  0  0  0  0  0  0  0  0  0
     3.358    -4.706    12.734 C   0  0  0  0  0  0  0  0  0  0  0  0
     3.096    -3.347    12.731 C   0  0  0  0  0  0  0  0  0  0  0  0
     2.741    -2.984    11.430 C   0  0  0  0  0  0  0  0  0  0  0  0
     1.794    -0.456     9.332 H   0  0  0  0  0  0  0  0  0  0  0  0
     1.719    -2.090     7.558 H   0  0  0  0  0  0  0  0  0  0  0  0
     3.277    -6.137    11.110 H   0  0  0  0  0  0  0  0  0  0  0  0
     3.660    -5.292    13.594 H   0  0  0  0  0  0  0  0  0  0  0  0
     3.158    -2.683    13.594 H   0  0  0  0  0  0  0  0  0  0  0  0
  1  2  2  0
  2  3  1  0
  3  4  2  0
  4  5  1  0
  5  6  1  0
  6  7  1  0
  7  8  1  0
  8  9  2  0
  9 10  1  0
 10  2  1  0
 10  6  2  0
  3 11  1  0
  4 12  1  0
  7 13  1  0
  8 14  1  0
  9 15  1  0
M  END
>  <CID>  (1) 
0

$$$$
