
     RDKit          3D

 12 12  0  0  0  0  0  0  0  0999 V2000
     2.188    -0.451    14.668 C   0  0  0  0  0  0  0  0  0  0  0  0
     2.278    -0.197    13.313 C   0  0  0  0  0  0  0  0  0  0  0  0
     2.558    -1.200    12.392 C   0  0  0  0  0  0  0  0  0  0  0  0
     2.749    -2.481    12.864 C   0  0  0  0  0  0  0  0  0  0  0  0
     2.659    -2.721    14.206 C   0  0  0  0  0  0  0  0  0  0  0  0
     2.379    -1.732    15.144 C   0  0  0  0  0  0  0  0  0  0  0  0
     1.969     0.336    15.381 H   0  0  0  0  0  0  0  0  0  0  0  0
     2.125     0.803    12.974 H   0  0  0  0  0  0  0  0  0  0  0  0
     2.629    -1.001    11.321 H   0  0  0  0  0  0  0  0  0  0  0  0
     2.969    -3.269    12.146 H   0  0  0  0  0  0  0  0  0  0  0  0
     2.808    -3.718    14.566 H   0  0  0  0  0  0  0  0  0  0  0  0
     2.312    -1.950    16.209 H   0  0  0  0  0  0  0  0  0  0  0  0
  1  2  2  0
  2  3  1  0
  3  4  2  0
  4  5  1  0
  5  6  2  0
  6  1  1  0
  1  7  1  0
  2  8  1  0
  3  9  1  0
  4 10  1  0
  5 11  1  0
  6 12  1  0
M  END
>  <CID>  (1) 
0

$$$$
