BRD4, Ligand 6
     RDKit          3D

 17 19  0  0  0  0  0  0  0  0999 V2000
    1.9969   -3.4501    9.7171 C   0  0  0  0  0  0  0  0  0  0  0  0
    1.9782   -2.0905    9.9540 C   0  0  0  0  0  0  0  0  0  0  0  0
    2.2346   -1.6284   11.2413 C   0  0  0  0  0  0  0  0  0  0  0  0
    3.0256   -3.0403   14.6065 N   0  0  0  0  0  0  0  0  0  0  0  0
    2.4821   -2.5088   12.2967 C   0  0  0  0  0  0  0  0  0  0  0  0
    2.7510   -4.8671   13.0545 N   0  0  0  0  0  0  0  0  0  0  0  0
    2.7590   -1.9979   13.6456 C   0  0  0  0  0  0  0  0  0  0  0  0
    3.0246   -4.3904   14.2756 C   0  0  0  0  0  0  0  0  0  0  0  0
    2.7805   -0.8233   14.0411 O   0  0  0  0  0  0  0  0  0  0  0  0
    3.2648   -5.3886   15.3954 C   0  0  0  0  0  0  0  0  0  0  0  0
    3.1884   -4.9342   16.7071 C   0  0  0  0  0  0  0  0  0  0  0  0
    3.2618   -5.8330   17.7782 C   0  0  0  0  0  0  0  0  0  0  0  0
    3.3840   -7.1683   17.5126 C   0  0  0  0  0  0  0  0  0  0  0  0
    3.4650   -7.6872   16.1995 C   0  0  0  0  0  0  0  0  0  0  0  0
    3.4228   -6.7774   15.1150 C   0  0  0  0  0  0  0  0  0  0  0  0
    2.4759   -3.8957   12.0618 C   0  0  0  0  0  0  0  0  0  0  0  0
    2.2193   -4.3930   10.7633 C   0  0  0  0  0  0  0  0  0  0  0  0
  1  2  2  0
  1 17  1  0
  2  3  1  0
  3  5  2  0
  4  7  1  0
  4  8  1  0
  5  7  1  0
  5 16  1  0
  6  8  2  0
  6 16  1  0
  7  9  2  0
  8 10  1  0
 10 11  2  0
 10 15  1  0
 11 12  1  0
 12 13  2  0
 13 14  1  0
 14 15  2  0
 16 17  2  0
M  END
$$$$
