
     RDKit          3D

 15 16  0  0  0  0  0  0  0  0999 V2000
     0.500    -3.285    16.227 O   0  0  0  0  0  0  0  0  0  0  0  0
    -0.102    -2.216    15.859 C   0  0  0  0  0  0  0  0  0  0  0  0
    -1.271    -1.927    16.473 C   0  0  0  0  0  0  0  0  0  0  0  0
    -2.089    -0.832    16.238 C   0  0  0  0  0  0  0  0  0  0  0  0
    -1.487     0.223    15.029 S   0  0  0  0  0  0  0  0  0  0  0  0
     0.001    -0.301    14.365 C   0  0  0  0  0  0  0  0  0  0  0  0
     0.840     0.184    13.411 N   0  0  0  0  0  0  0  0  0  0  0  0
     1.889    -0.652    13.290 C   0  0  0  0  0  0  0  0  0  0  0  0
     1.717    -1.694    14.184 C   0  0  0  0  0  0  0  0  0  0  0  0
     0.519    -1.474    14.869 C   0  0  0  0  0  0  0  0  0  0  0  0
    -1.654    -2.611    17.251 H   0  0  0  0  0  0  0  0  0  0  0  0
    -3.021    -0.679    16.784 H   0  0  0  0  0  0  0  0  0  0  0  0
     0.629     1.067    12.905 H   0  0  0  0  0  0  0  0  0  0  0  0
     2.724    -0.532    12.610 H   0  0  0  0  0  0  0  0  0  0  0  0
     2.399    -2.533    14.326 H   0  0  0  0  0  0  0  0  0  0  0  0
  1  2  2  0
  2  3  1  0
  3  4  2  0
  4  5  1  0
  5  6  1  0
  6  7  1  0
  7  8  1  0
  8  9  2  0
  9 10  1  0
 10  2  1  0
 10  6  2  0
  3 11  1  0
  4 12  1  0
  7 13  1  0
  8 14  1  0
  9 15  1  0
M  END
>  <CID>  (1) 
0

$$$$
